power-flow-agent/results/ieee14/2026-09-21/gpt-5.6-sol/react_nogate/traces/26_case14-parameterized-021-s0.transcript.txt
==============================================================================
TRANSCRIPT  react_nogate  |  openrouter:openai/gpt-5.6-sol  |  case14  |  case14-parameterized-021-s0  run 0
==============================================================================
date: 2026-09-21   seed: 0   difficulty: parameterized   tool variant: load_split

[system]   (hash 7da5e2a37ec4, from methods/react_nogate/method.json prompt_files)
You are a power system power-flow analysis assistant. You help the user complete power system analysis tasks from natural-language requests.

## What you can do
You complete tasks by calling tool functions:
1. Load an IEEE standard test system (14, 30, 57, 118, 300 buses)
2. Run AC power flow
3. Modify the load at a bus and re-solve
4. Disconnect or reconnect a line and re-solve
5. Query the network status
6. Run an N-1 contingency analysis (disconnect branches one at a time and rank the worst cases)
7. Generate remedial-action suggestions (what-if load shedding or voltage adjustment) to reduce violation risk

## Key rules
- Never fabricate any numerical result. Every voltage, power, loss, or loading value must come from a tool return value.
- If a tool reports an error or a non-converged power flow, say so explicitly and do not report numbers for that state.
- If the request is ambiguous, state the interpretation you are using.
- Bus and line identifiers in the request are MATPOWER 1-based ids; pass them to the tools as given, unless the request itself states a different indexing convention for that identifier (e.g. "(0-based)"), in which case convert it to the MATPOWER 1-based id before calling any tool.
- After a network modification, re-solve before reporting any value.
- Always reply in English.

## Reply format
After each analysis, reply in this structure:
1. One-sentence summary
2. Key numbers (total load, total generation, total losses, voltage range) taken from the tool outputs
3. Violations, if any
4. Suggested next step

[user]
Load case14 and run an N-1 contingency analysis ranked by max violations and report the 3 worst outages.

[tools available to the model]   (function-calling schema, --tool-variant load_split; enum values and defaults as sent)
  load_case(case_name: string* in {case14, case30, case57, case118, case300})  Load IEEE test case.
  run_powerflow()  Run power flow on current case.
  disconnect_line(from_bus: integer*, to_bus: integer*)  Disconnect line/branch between two buses and recompute.
  reconnect_line(from_bus: integer*, to_bus: integer*)  Reconnect line/branch between two buses and recompute.
  get_most_loaded_branch()  Get most loaded branch.
  run_n1_contingency(top_k: integer (default 5), criteria: string in {max_violations, max_overload, min_voltage} (default max_violations), max_candidates: integer (default 0))  Run N-1 contingency analysis.
  recommend_remedial_actions(max_actions: integer (default 5), allow_load_shed: boolean (default True), allow_voltage_control: boolean (default True), include_best_comparison: boolean (default True))  Recommend remedial actions.
  apply_remedial_action(action_index: integer*, confirmed: boolean (default False))  Apply one remedial action by index.
  get_status()  Get current network status.
  generate_plot(plot_type: string* in {voltage_heatmap, flow_diagram, violation_overview, comparison})  Generate one plot.
  set_active_load(bus_id: integer*, p_mw: number*)  Set a bus's active load (MW) and recompute. Use this when the request states only an active-power value. This tool has no reactive-power argument: the bus's present reactive load is always left unchanged. If the request also states a reactive-power value, use set_load instead.
  set_load(bus_id: integer*, p_mw: number*, q_mvar: number*)  Set a bus's active and reactive load (MW, Mvar) and recompute. Use this only when the request states both values. If the request states only an active-power value, use set_active_load instead -- do not invent a reactive-power value here to fill this in.

--- round 1 ---
[assistant]   (934 in / 59 out tokens, 2.8 s)
(no text)
tool_call  load_case(case_name="case14")
[tool load_case]   (gate: not applied)
{"case_name": "case14", "n_buses": 14, "n_generators": 5, "n_lines": 20, "n_loads": 11, "total_load_mw": 263.1255898021494, "total_gen_capacity_mw": 772.4000000000001}

--- round 2 ---
[assistant]   (1035 in / 35 out tokens, 1.2 s)
(no text)
tool_call  run_n1_contingency(top_k=3, criteria="max_violations", max_candidates=0)
[tool run_n1_contingency]   (gate: not applied)
{"plot_type": "n1_ranking", "figure_json": "<plotly figure, 10 KB, omitted; see the .json trace>", "n1_report": {"case_name": "case14", "base_converged": true, "top_k": 3, "criteria": "max_violations", "results": [{"branch_id": 100002, "branch_type": "trafo", "from_bus": 5, "to_bus": 6, "converged": true, "n_voltage_violations": 9, "n_thermal_violations": 0, "delta_voltage_violations": 1, "delta_thermal_violations": 0, "worst_vm_pu": 1.0100000000000002, "worst_loading_percent": 1.5883853458475001, "score": 90001.58838534585, "notes": ""}, {"branch_id": 5, "branch_type": "line", "from_bus": 3, "to_bus": 4, "converged": true, "n_voltage_violations": 8, "n_thermal_violations": 0, "delta_voltage_violations": 0, "delta_thermal_violations": 0, "worst_vm_pu": 1.0099999999999998, "worst_loading_percent": 1.5985700905069633, "score": 80001.5985700905, "notes": ""}, {"branch_id": 14, "branch_type": "line", "from_bus": 13, "to_bus": 14, "converged": true, "n_voltage_violations": 8, "n_thermal_violations": 0, "delta_voltage_violations": 0, "delta_thermal_violations": 0, "worst_vm_pu": 1.01, "worst_loading_percent": 1.5435883723396568, "score": 80001.54358837234, "notes": ""}], "summary_text": "N-1 completed over 20 branches. Worst outage: 5-6 (trafo), V violations=9 (delta=1), thermal violations=0 (delta=0)."}}

--- round 3 ---
[assistant]   (5984 in / 54 out tokens, 2.7 s)
(no text)
tool_call  run_powerflow()
[tool run_powerflow]   (gate: pass)
{"case_name": "case14", "converged": true, "bus_voltages": [{"bus_id": 1, "vm_pu": 1.06, "va_deg": 0.0, "is_violation": true, "violation_type": "overvoltage"}, {"bus_id": 2, "vm_pu": 1.0449999999999997, "va_deg": -5.09509986850305, "is_violation": false, "violation_type": null}, {"bus_id": 3, "vm_pu": 1.01, "va_deg": -13.044122835594719, "is_violation": false, "violation_type": null}, {"bus_id": 4, "vm_pu": 1.0173568532565993, "va_deg": -10.49497273513062, "is_violation": false, "violation_type": null}, {"bus_id": 5, "vm_pu": 1.0191854592544327, "va_deg": -8.935269599536838, "is_violation": false, "violation_type": null}, {"bus_id": 6, "vm_pu": 1.07, "va_deg": -14.573302324486388, "is_violation": true, "violation_type": "overvoltage"}, {"bus_id": 7, "vm_pu": 1.0611886143766125, "va_deg": -13.620087350726763, "is_violation": true, "violation_type": "overvoltage"}, {"bus_id": 8, "vm_pu": 1.09, "va_deg": -13.620087350726761, "is_violation": true, "violation_type": "overvoltage"}, {"bus_id": 9, "vm_pu": 1.0554498281920963, "va_deg": -15.2398146409864, "is_violation": true, "violation_type": "overvoltage"}, {"bus_id": 10, "vm_pu": 1.0510301230577073, "va_deg": -15.390267134307145, "is_violation": true, "violation_type": "overvoltage"}, {"bus_id": 11, "vm_pu": 1.0569881354352462, "va_deg": -15.110953064668708, "is_violation": true, "violation_type": "overvoltage"}, {"bus_id": 12, "vm_pu": 1.0550019174059448, "va_deg": -15.43850352695969, "is_violation": true, "violation_type": "overvoltage"}, {"bus_id": 13, "vm_pu": 1.049164092812586, "va_deg": -15.547758157661573, "is_violation": false, "violation_type": null}, {"bus_id": 14, "vm_pu": 1.0339122424665572, "va_deg": -16.420117789912723, "is_violation": false, "violation_type": null}], "line_flows": [{"line_id": 0, "from_bus": 1, "to_bus": 2, "p_from_mw": 160.28554945898904, "q_from_mvar": -21.195888155519675, "loading_percent": 1.5406987777329997, "is_violation": false}, {"line_id": 1, "from_bus": 1, "to_bus": 5, "p_from_mw": 76.8448328088298, "q_from_mvar": 3.8960210249336296, "loading_percent": 0.7336955984862579, "is_violation": false}, {"line_id": 2, "from_bus": 2, "to_bus": 3, "p_from_mw": 75.09859619278903, "q_from_mvar": 3.3807840007250736, "loading_percent": 0.7270042568574513, "is_violation": false}, {"line_id": 3, "from_bus": 2, "to_bus": 4, "p_from_mw": 56.84875312370531, "q_from_mvar": -1.5329967240229778, "loading_percent": 0.5497019857996457, "is_violation": false}, {"line_id": 4, "from_bus": 2, "to_bus": 5, "p_from_mw": 42.04409272165361, "q_from_mvar": 1.2298303924408396, "loading_percent": 0.4080305498977128, "is_violation": false}, {"line_id": 5, "from_bus": 3, "to_bus": 4, "p_from_mw": -24.43864739091157, "q_from_mvar": 5.172267854207078, "loading_percent": 0.2525794858213181, "is_violation": false}, {"line_id": 6, "from_bus": 4, "to_bus": 5, "p_from_mw": -61.90947234453381, "q_from_mvar": 16.121411433755455, "loading_percent": 0.6351781160429013, "is_violation": false}, {"line_id": 7, "from_bus": 6, "to_bus": 11, "p_from_mw": 7.076572220716942, "q_from_mvar": 3.645631305012425, "loading_percent": 0.07514805561554104, "is_violation": false}, {"line_id": 8, "from_bus": 6, "to_bus": 12, "p_from_mw": 7.882159209019012, "q_from_mvar": 2.536526803810377, "loading_percent": 0.07816710718885203, "is_violation": false}, {"line_id": 9, "from_bus": 6, "to_bus": 13, "p_from_mw": 18.610421185189885, "q_from_mvar": 7.78842567045817, "loading_percent": 0.19045051629959475, "is_violation": false}, {"line_id": 10, "from_bus": 9, "to_bus": 10, "p_from_mw": 4.841071018835708, "q_from_mvar": 3.702552480044482, "loading_percent": 0.058327934173893634, "is_violation": false}, {"line_id": 11, "from_bus": 9, "to_bus": 14, "p_from_mw": 10.078756966630422, "q_from_mvar": 3.7548149928716223, "loading_percent": 0.10293339801285142, "is_violation": false}, {"line_id": 12, "from_bus": 10, "to_bus": 11, "p_from_mw": -3.5598341484525955, "q_from_mvar": -1.7327047065301853, "loading_percent": 0.03804950837914349, "is_violation": false}, {"line_id": 13, "from_bus": 12, "to_bus": 13, "p_from_mw": 2.0087804283556885, "q_from_mvar": 0.8620826272762881, "loading_percent": 0.020929176367560542, "is_violation": false}, {"line_id": 14, "from_bus": 13, "to_bus": 14, "p_from_mw": 5.656881777909712, "q_from_mvar": 1.8556733665589402, "loading_percent": 0.057318094006242215, "is_violation": false}, {"line_id": 100000, "from_bus": 4, "to_bus": 7, "p_from_mw": 28.777921952128686, "q_from_mvar": -9.634530667454495, "loading_percent": 0.301314234443337, "is_violation": false}, {"line_id": 100001, "from_bus": 4, "to_bus": 9, "p_from_mw": 16.48065108698846, "q_from_mvar": -0.3641154980089165, "loading_percent": 0.16367103328402466, "is_violation": false}, {"line_id": 100002, "from_bus": 5, "to_bus": 6, "p_from_mw": 45.61313597658966, "q_from_mvar": 12.463210281711241, "loading_percent": 0.46863722454552276, "is_violation": false}, {"line_id": 100003, "from_bus": 7, "to_bus": 8, "p_from_mw": -7.389995900446527e-15, "q_from_mvar": -17.35697666077384, "loading_percent": 0.1652137934748436, "is_violation": false}, {"line_id": 100004, "from_bus": 7, "to_bus": 9, "p_from_mw": 28.777921951754237, "q_from_mvar": 5.942597782174867, "loading_percent": 0.2797043270387596, "is_violation": false}], "total_generation_mw": 277.0856011795824, "total_load_mw": 263.1255898021494, "total_loss_mw": 13.96001138344709, "voltage_violations": [{"bus_id": 1, "vm_pu": 1.06, "va_deg": 0.0, "is_violation": true, "violation_type": "overvoltage"}, {"bus_id": 6, "vm_pu": 1.07, "va_deg": -14.573302324486388, "is_violation": true, "violation_type": "overvoltage"}, {"bus_id": 7, "vm_pu": 1.0611886143766125, "va_deg": -13.620087350726763, "is_violation": true, "violation_type": "overvoltage"}, {"bus_id": 8, "vm_pu": 1.09, "va_deg": -13.620087350726761, "is_violation": true, "violation_type": "overvoltage"}, {"bus_id": 9, "vm_pu": 1.0554498281920963, "va_deg": -15.2398146409864, "is_violation": true, "violation_type": "overvoltage"}, {"bus_id": 10, "vm_pu": 1.0510301230577073, "va_deg": -15.390267134307145, "is_violation": true, "violation_type": "overvoltage"}, {"bus_id": 11, "vm_pu": 1.0569881354352462, "va_deg": -15.110953064668708, "is_violation": true, "violation_type": "overvoltage"}, {"bus_id": 12, "vm_pu": 1.0550019174059448, "va_deg": -15.43850352695969, "is_violation": true, "violation_type": "overvoltage"}], "thermal_violations": [], "summary_text": "", "solver_backend": "pandapower", "llm_prompt": null, "llm_response": null}

--- round 4 ---
[assistant]   (8665 in / 420 out tokens, 5.1 s)
The IEEE 14-bus case converged, and the 5–6 transformer outage is the worst N-1 contingency by maximum violations.

**Key numbers — base case**
- Total load: **263.126 MW**
- Total generation: **277.086 MW**
- Total losses: **13.960 MW**
- Voltage range: **1.010–1.090 p.u.**

**Three worst outages**
| Rank | Outage | Converged | Voltage violations | Thermal violations | Worst reported voltage | Worst loading |
|---:|---|:---:|---:|---:|---:|---:|
| 1 | Transformer **5–6** | Yes | **9** (+1 vs. base) | 0 | 1.010 p.u. | 1.588% |
| 2 | Line **3–4** | Yes | **8** (+0) | 0 | 1.010 p.u. | 1.599% |
| 3 | Line **13–14** | Yes | **8** (+0) | 0 | 1.010 p.u. | 1.544% |

**Violations**
- Base case: **8 overvoltage violations**, at buses 1, 6, 7, 8, 9, 10, 11, and 12.
- No thermal violations occurred in the three worst contingencies.
- The 5–6 transformer outage adds one voltage violation.

**Suggested next step:** Evaluate voltage-control remedial actions for the 5–6 transformer outage, particularly generator voltage setpoint reductions.

[final answer]
The IEEE 14-bus case converged, and the 5–6 transformer outage is the worst N-1 contingency by maximum violations.

**Key numbers — base case**
- Total load: **263.126 MW**
- Total generation: **277.086 MW**
- Total losses: **13.960 MW**
- Voltage range: **1.010–1.090 p.u.**

**Three worst outages**
| Rank | Outage | Converged | Voltage violations | Thermal violations | Worst reported voltage | Worst loading |
|---:|---|:---:|---:|---:|---:|---:|
| 1 | Transformer **5–6** | Yes | **9** (+1 vs. base) | 0 | 1.010 p.u. | 1.588% |
| 2 | Line **3–4** | Yes | **8** (+0) | 0 | 1.010 p.u. | 1.599% |
| 3 | Line **13–14** | Yes | **8** (+0) | 0 | 1.010 p.u. | 1.544% |

**Violations**
- Base case: **8 overvoltage violations**, at buses 1, 6, 7, 8, 9, 10, 11, and 12.
- No thermal violations occurred in the three worst contingencies.
- The 5–6 transformer outage adds one voltage violation.

**Suggested next step:** Evaluate voltage-control remedial actions for the 5–6 transformer outage, particularly generator voltage setpoint reductions.
